colchicine
                    3D
 Structure written by MMmdl.
 54 56  0  0  1  0            999 V2000
    3.4249   -5.1814   -1.0785 C   0  0  0  0  0  0
    2.5487   -4.1285   -1.4544 O   0  0  0  0  0  0
    2.3195   -3.1121   -0.5493 C   0  0  0  0  0  0
    3.3196   -2.5546    0.2913 C   0  0  0  0  0  0
    2.9551   -1.5057    1.1683 C   0  0  0  0  0  0
    1.6366   -1.0148    1.2178 C   0  0  0  0  0  0
    1.3193    0.1246    2.1738 C   0  0  0  0  0  0
    1.0238    1.4342    1.4244 C   0  0  0  0  0  0
    0.1741    1.2309    0.1499 C   0  0  1  0  0  0
   -1.0261    0.2952    0.4273 C   0  0  0  0  0  0
   -2.2097    0.9213    0.6640 C   0  0  0  0  0  0
   -3.5716    0.3735    0.8233 C   0  0  0  0  0  0
   -3.9699   -1.0433    0.7188 C   0  0  0  0  0  0
   -5.3361   -1.2444    0.7689 O   0  0  0  0  0  0
   -5.8435   -2.5678    0.6528 C   0  0  0  0  0  0
   -3.0536   -2.0292    0.6182 C   0  0  0  0  0  0
   -1.7150   -2.0250    0.5482 C   0  0  0  0  0  0
   -0.7841   -1.0513    0.4419 C   0  0  0  0  0  0
    0.6298   -1.5588    0.3777 C   0  0  0  0  0  0
    1.0051   -2.5928   -0.5235 C   0  0  0  0  0  0
    0.0957   -3.1134   -1.4099 O   0  0  0  0  0  0
    0.0057   -2.3746   -2.6177 C   0  0  0  0  0  0
   -4.4552    1.1989    1.0531 O   0  0  0  0  0  0
   -0.1922    2.5196   -0.4501 N   0  0  0  0  0  0
    0.6306    3.3303   -1.1334 C   0  0  0  0  0  0
    0.0161    4.6208   -1.6632 C   0  0  0  0  0  0
    1.8170    3.0802   -1.3417 O   0  0  0  0  0  0
    4.6144   -3.0244    0.1962 O   0  0  0  0  0  0
    5.6132   -2.4676    1.0386 C   0  0  0  0  0  0
    0.7897    0.7545   -0.6157 H   0  0  0  0  0  0
    3.1390   -6.0888   -1.6101 H   0  0  0  0  0  0
    4.4541   -4.9542   -1.3569 H   0  0  0  0  0  0
    3.3775   -5.3983   -0.0102 H   0  0  0  0  0  0
    3.6847   -1.0468    1.8173 H   0  0  0  0  0  0
    0.4604   -0.1628    2.7817 H   0  0  0  0  0  0
    2.1379    0.2782    2.8778 H   0  0  0  0  0  0
    1.9759    1.8800    1.1342 H   0  0  0  0  0  0
    0.5496    2.1464    2.1008 H   0  0  0  0  0  0
   -2.1281    1.9631    0.9355 H   0  0  0  0  0  0
   -6.9327   -2.5338    0.6663 H   0  0  0  0  0  0
   -5.5431   -3.0334   -0.2869 H   0  0  0  0  0  0
   -5.5268   -3.1928    1.4889 H   0  0  0  0  0  0
   -3.4488   -3.0315    0.6349 H   0  0  0  0  0  0
   -1.3066   -3.0213    0.6448 H   0  0  0  0  0  0
   -0.7302   -2.8377   -3.2747 H   0  0  0  0  0  0
   -0.3080   -1.3459   -2.4350 H   0  0  0  0  0  0
    0.9621   -2.3588   -3.1421 H   0  0  0  0  0  0
   -1.1519    2.8133   -0.3431 H   0  0  0  0  0  0
    0.7582    5.2094   -2.2037 H   0  0  0  0  0  0
   -0.8062    4.4000   -2.3442 H   0  0  0  0  0  0
   -0.3667    5.2262   -0.8412 H   0  0  0  0  0  0
    6.5635   -2.9641    0.8432 H   0  0  0  0  0  0
    5.7527   -1.4035    0.8434 H   0  0  0  0  0  0
    5.3758   -2.6164    2.0928 H   0  0  0  0  0  0
  1  2  1  0  0  0
  1 31  1  0  0  0
  1 32  1  0  0  0
  1 33  1  0  0  0
  2  3  1  0  0  0
  3 20  1  0  0  0
  3  4  2  0  0  0
  4  5  1  0  0  0
  4 28  1  0  0  0
  5  6  2  0  0  0
  5 34  1  0  0  0
  6 19  1  0  0  0
  6  7  1  0  0  0
  7  8  1  0  0  0
  7 35  1  0  0  0
  7 36  1  0  0  0
  8  9  1  0  0  0
  8 37  1  0  0  0
  8 38  1  0  0  0
  9 30  1  0  0  0
  9 10  1  0  0  0
  9 24  1  0  0  0
 10 18  1  0  0  0
 10 11  2  0  0  0
 11 12  1  0  0  0
 11 39  1  0  0  0
 12 13  1  0  0  0
 12 23  2  0  0  0
 13 14  1  0  0  0
 13 16  2  0  0  0
 14 15  1  0  0  0
 15 40  1  0  0  0
 15 41  1  0  0  0
 15 42  1  0  0  0
 16 17  1  0  0  0
 16 43  1  0  0  0
 17 18  2  0  0  0
 17 44  1  0  0  0
 18 19  1  0  0  0
 19 20  2  0  0  0
 20 21  1  0  0  0
 21 22  1  0  0  0
 22 45  1  0  0  0
 22 46  1  0  0  0
 22 47  1  0  0  0
 24 25  1  0  0  0
 24 48  1  0  0  0
 25 26  1  0  0  0
 25 27  2  0  0  0
 26 49  1  0  0  0
 26 50  1  0  0  0
 26 51  1  0  0  0
 28 29  1  0  0  0
 29 52  1  0  0  0
 29 53  1  0  0  0
 29 54  1  0  0  0
M  END
> <i_m_source_file_index>
1

> <r_mmod_Potential_Energy-OPLS-2005>
205.100891113281

> <b_mmod_Minimization_Converged-OPLS-2005>
1

> <r_mmod_RMS_Derivative-OPLS-2005>
0.0479811653494835

> <i_mmod_Times_Found-OPLS-2005>
1

> <r_mmod_Relative_Potential_Energy-OPLS-2005>
0

> <b_mmod_Chiralities_Consistent-OPLS-2005>
1

> <i_mmod_Conformation-OPLS-2005>
1

> <i_mmod_Serial_Number-OPLS-2005>
1

$$$$
CR-42-002
                    3D
 Structure written by MMmdl.
 54 56  0  0  1  0            999 V2000
    0.2012   -2.4285   -2.3799 C   0  0  0  0  0  0
    0.3155   -3.0921   -1.1312 O   0  0  0  0  0  0
    1.2653   -2.5379   -0.3104 C   0  0  0  0  0  0
    0.8862   -1.5015    0.5881 C   0  0  0  0  0  0
    1.9101   -0.8438    1.3186 C   0  0  0  0  0  0
    1.5858    0.3112    2.2526 C   0  0  0  0  0  0
    1.1292    1.5605    1.4813 C   0  0  0  0  0  0
    0.1951    1.2379    0.2936 C   0  0  1  0  0  0
   -0.8988    0.2269    0.7074 C   0  0  0  0  0  0
   -2.0987    0.7714    1.0427 C   0  0  0  0  0  0
   -3.3951    0.1282    1.3398 C   0  0  0  0  0  0
   -3.7139   -1.3103    1.2108 C   0  0  0  0  0  0
   -5.3712   -1.9417    1.3419 S   0  0  0  0  0  0
   -6.3565   -0.8957    0.2331 C   0  0  0  0  0  0
   -2.7309   -2.2168    1.0905 C   0  0  0  0  0  0
   -1.4011   -2.1271    0.9499 C   0  0  0  0  0  0
   -0.5530   -1.0956    0.7457 C   0  0  0  0  0  0
   -4.2824    0.8854    1.7298 O   0  0  0  0  0  0
   -0.3248    2.4673   -0.3169 N   0  0  0  0  0  0
    0.3674    3.3085   -1.1004 C   0  0  0  0  0  0
   -0.3922    4.5245   -1.6182 C   0  0  0  0  0  0
    1.5472    3.1412   -1.4064 O   0  0  0  0  0  0
    3.2521   -1.2386    1.1762 C   0  0  0  0  0  0
    3.6237   -2.2998    0.3333 C   0  0  0  0  0  0
    4.9760   -2.5798    0.3136 O   0  0  0  0  0  0
    5.4234   -3.8703   -0.0721 C   0  0  0  0  0  0
    2.6179   -2.9638   -0.4221 C   0  0  0  0  0  0
    2.9730   -3.9573   -1.3072 O   0  0  0  0  0  0
    2.2410   -5.1742   -1.2319 C   0  0  0  0  0  0
    0.7809    0.7768   -0.5042 H   0  0  0  0  0  0
   -0.5754   -2.9059   -2.9770 H   0  0  0  0  0  0
   -0.0725   -1.3805   -2.2484 H   0  0  0  0  0  0
    1.1350   -2.4774   -2.9415 H   0  0  0  0  0  0
    0.8051   -0.0108    2.9430 H   0  0  0  0  0  0
    2.4467    0.5556    2.8760 H   0  0  0  0  0  0
    2.0166    2.0617    1.0929 H   0  0  0  0  0  0
    0.6594    2.2656    2.1680 H   0  0  0  0  0  0
   -2.0677    1.8226    1.2881 H   0  0  0  0  0  0
   -7.3470   -1.3298    0.0982 H   0  0  0  0  0  0
   -6.4820    0.1062    0.6417 H   0  0  0  0  0  0
   -5.8781   -0.8201   -0.7434 H   0  0  0  0  0  0
   -3.0782   -3.2396    1.1358 H   0  0  0  0  0  0
   -0.9187   -3.0895    1.0490 H   0  0  0  0  0  0
   -1.2918    2.6909   -0.1334 H   0  0  0  0  0  0
    0.2504    5.1448   -2.2439 H   0  0  0  0  0  0
   -1.2503    4.2126   -2.2142 H   0  0  0  0  0  0
   -0.7493    5.1330   -0.7871 H   0  0  0  0  0  0
    4.0210   -0.7255    1.7353 H   0  0  0  0  0  0
    5.4340   -3.9785   -1.1568 H   0  0  0  0  0  0
    4.8184   -4.6619    0.3722 H   0  0  0  0  0  0
    6.4470   -4.0091    0.2752 H   0  0  0  0  0  0
    1.4306   -5.1901   -1.9604 H   0  0  0  0  0  0
    2.9060   -6.0050   -1.4672 H   0  0  0  0  0  0
    1.8294   -5.3537   -0.2372 H   0  0  0  0  0  0
  1  2  1  0  0  0
  1 31  1  0  0  0
  1 32  1  0  0  0
  1 33  1  0  0  0
  2  3  1  0  0  0
  3 27  1  0  0  0
  3  4  2  0  0  0
  4 17  1  0  0  0
  4  5  1  0  0  0
  5  6  1  0  0  0
  5 23  2  0  0  0
  6  7  1  0  0  0
  6 34  1  0  0  0
  6 35  1  0  0  0
  7  8  1  0  0  0
  7 36  1  0  0  0
  7 37  1  0  0  0
  8 30  1  0  0  0
  8  9  1  0  0  0
  8 19  1  0  0  0
  9 17  1  0  0  0
  9 10  2  0  0  0
 10 11  1  0  0  0
 10 38  1  0  0  0
 11 12  1  0  0  0
 11 18  2  0  0  0
 12 13  1  0  0  0
 12 15  2  0  0  0
 13 14  1  0  0  0
 14 39  1  0  0  0
 14 40  1  0  0  0
 14 41  1  0  0  0
 15 16  1  0  0  0
 15 42  1  0  0  0
 16 17  2  0  0  0
 16 43  1  0  0  0
 19 20  1  0  0  0
 19 44  1  0  0  0
 20 21  1  0  0  0
 20 22  2  0  0  0
 21 45  1  0  0  0
 21 46  1  0  0  0
 21 47  1  0  0  0
 23 24  1  0  0  0
 23 48  1  0  0  0
 24 25  1  0  0  0
 24 27  2  0  0  0
 25 26  1  0  0  0
 26 49  1  0  0  0
 26 50  1  0  0  0
 26 51  1  0  0  0
 27 28  1  0  0  0
 28 29  1  0  0  0
 29 52  1  0  0  0
 29 53  1  0  0  0
 29 54  1  0  0  0
M  END
> <i_m_source_file_index>
3

> <r_mmod_Potential_Energy-OPLS-2005>
220.851181030273

> <b_mmod_Minimization_Converged-OPLS-2005>
1

> <r_mmod_RMS_Derivative-OPLS-2005>
0.00398536492139101

> <i_mmod_Times_Found-OPLS-2005>
1

> <r_mmod_Relative_Potential_Energy-OPLS-2005>
0

> <b_mmod_Chiralities_Consistent-OPLS-2005>
1

> <i_mmod_Conformation-OPLS-2005>
1

> <i_mmod_Serial_Number-OPLS-2005>
3

$$$$
CR-42-024
                    3D
 Structure written by MMmdl.
 58 60  0  0  1  0            999 V2000
   -5.9384   -4.4569    0.1023 C   0  0  0  0  0  0
   -4.4992   -4.2314    0.5711 C   0  0  0  0  0  0
   -4.0644   -2.9658    0.0955 O   0  0  0  0  0  0
   -2.7144   -2.6810    0.0314 C   0  0  0  0  0  0
   -2.3633   -1.6882   -0.8989 C   0  0  0  0  0  0
   -1.0263   -1.2992   -1.0942 C   0  0  0  0  0  0
   -0.7242   -0.2205   -2.1222 C   0  0  0  0  0  0
   -0.2631    1.0882   -1.4600 C   0  0  0  0  0  0
    0.6923    0.8654   -0.2668 C   0  0  1  0  0  0
    1.7858   -0.1698   -0.6162 C   0  0  0  0  0  0
    2.9776    0.3521   -1.0111 C   0  0  0  0  0  0
    1.2121    2.1416    0.2349 N   0  0  0  0  0  0
    0.4729    3.0414    0.9848 C   0  0  0  0  0  0
    1.2543    4.0917    1.2724 O   0  0  0  0  0  0
    0.7318    5.1642    2.0378 C   0  0  0  0  0  0
   -0.7007    2.9152    1.3371 O   0  0  0  0  0  0
   -1.6927   -3.2775    0.8208 C   0  0  0  0  0  0
   -2.0275   -4.1981    1.7886 O   0  0  0  0  0  0
   -1.2912   -5.4146    1.7974 C   0  0  0  0  0  0
   -0.3448   -2.8554    0.6531 C   0  0  0  0  0  0
    0.6212   -3.3386    1.4995 O   0  0  0  0  0  0
    0.7560   -2.5738    2.6868 C   0  0  0  0  0  0
    0.0133   -1.8917   -0.3309 C   0  0  0  0  0  0
    1.4473   -1.4928   -0.5441 C   0  0  0  0  0  0
    2.2979   -2.5334   -0.6806 C   0  0  0  0  0  0
    3.6257   -2.6279   -0.8358 C   0  0  0  0  0  0
    4.6015   -1.7294   -1.0433 C   0  0  0  0  0  0
    6.2602   -2.3617   -1.1509 S   0  0  0  0  0  0
    7.2564   -1.2277   -0.1430 C   0  0  0  0  0  0
    4.2726   -0.3067   -1.2785 C   0  0  0  0  0  0
    5.1494    0.4212   -1.7414 O   0  0  0  0  0  0
    0.1220    0.4679    0.5752 H   0  0  0  0  0  0
   -6.3152   -5.4187    0.4507 H   0  0  0  0  0  0
   -6.6007   -3.6796    0.4842 H   0  0  0  0  0  0
   -6.0012   -4.4469   -0.9860 H   0  0  0  0  0  0
   -3.8648   -5.0319    0.1874 H   0  0  0  0  0  0
   -4.4704   -4.2546    1.6607 H   0  0  0  0  0  0
   -3.1444   -1.2252   -1.4843 H   0  0  0  0  0  0
    0.0474   -0.5925   -2.7975 H   0  0  0  0  0  0
   -1.5964   -0.0307   -2.7488 H   0  0  0  0  0  0
   -1.1471    1.6143   -1.0976 H   0  0  0  0  0  0
    0.1911    1.7389   -2.2083 H   0  0  0  0  0  0
    2.9383    1.3825   -1.3321 H   0  0  0  0  0  0
    2.1689    2.3974    0.0405 H   0  0  0  0  0  0
    1.4970    5.9279    2.1763 H   0  0  0  0  0  0
   -0.1198    5.6230    1.5340 H   0  0  0  0  0  0
    0.4120    4.8201    3.0222 H   0  0  0  0  0  0
   -1.9481   -6.2262    2.1100 H   0  0  0  0  0  0
   -0.8962   -5.6714    0.8129 H   0  0  0  0  0  0
   -0.4681   -5.3695    2.5103 H   0  0  0  0  0  0
   -0.1677   -2.5773    3.2670 H   0  0  0  0  0  0
    1.5442   -2.9996    3.3073 H   0  0  0  0  0  0
    1.0247   -1.5400    2.4645 H   0  0  0  0  0  0
    1.8195   -3.5027   -0.6952 H   0  0  0  0  0  0
    3.9781   -3.6495   -0.8064 H   0  0  0  0  0  0
    8.2514   -1.6455    0.0098 H   0  0  0  0  0  0
    7.3699   -0.2603   -0.6306 H   0  0  0  0  0  0
    6.7927   -1.0780    0.8320 H   0  0  0  0  0  0
  1  2  1  0  0  0
  1 33  1  0  0  0
  1 34  1  0  0  0
  1 35  1  0  0  0
  2  3  1  0  0  0
  2 36  1  0  0  0
  2 37  1  0  0  0
  3  4  1  0  0  0
  4  5  1  0  0  0
  4 17  2  0  0  0
  5  6  2  0  0  0
  5 38  1  0  0  0
  6 23  1  0  0  0
  6  7  1  0  0  0
  7  8  1  0  0  0
  7 39  1  0  0  0
  7 40  1  0  0  0
  8  9  1  0  0  0
  8 41  1  0  0  0
  8 42  1  0  0  0
  9 32  1  0  0  0
  9 10  1  0  0  0
  9 12  1  0  0  0
 10 24  1  0  0  0
 10 11  2  0  0  0
 11 30  1  0  0  0
 11 43  1  0  0  0
 12 13  1  0  0  0
 12 44  1  0  0  0
 13 14  1  0  0  0
 13 16  2  0  0  0
 14 15  1  0  0  0
 15 45  1  0  0  0
 15 46  1  0  0  0
 15 47  1  0  0  0
 17 18  1  0  0  0
 17 20  1  0  0  0
 18 19  1  0  0  0
 19 48  1  0  0  0
 19 49  1  0  0  0
 19 50  1  0  0  0
 20 21  1  0  0  0
 20 23  2  0  0  0
 21 22  1  0  0  0
 22 51  1  0  0  0
 22 52  1  0  0  0
 22 53  1  0  0  0
 23 24  1  0  0  0
 24 25  2  0  0  0
 25 26  1  0  0  0
 25 54  1  0  0  0
 26 27  2  0  0  0
 26 55  1  0  0  0
 27 28  1  0  0  0
 27 30  1  0  0  0
 28 29  1  0  0  0
 29 56  1  0  0  0
 29 57  1  0  0  0
 29 58  1  0  0  0
 30 31  2  0  0  0
M  END
> <i_m_source_file_index>
28

> <r_mmod_Potential_Energy-OPLS-2005>
220.080627441406

> <b_mmod_Minimization_Converged-OPLS-2005>
1

> <r_mmod_RMS_Derivative-OPLS-2005>
0.00986042991280556

> <i_mmod_Times_Found-OPLS-2005>
1

> <r_mmod_Relative_Potential_Energy-OPLS-2005>
0

> <b_mmod_Chiralities_Consistent-OPLS-2005>
1

> <i_mmod_Conformation-OPLS-2005>
1

> <i_mmod_Serial_Number-OPLS-2005>
28

$$$$
